OPT_V9/8ts_w_storgae_myc_NEW_PARAM/powerflow_results_t2.txt
Pandapower Network Debug Info
==================================================

BUS:
       vm_pu  va_degree      p_mw    q_mvar
0   1.006191   0.277397 -0.004010 -0.000089
1   1.009145   0.410508 -0.003123  0.000116
2   1.010948   0.483517 -0.001950 -0.000084
3   1.009039   0.403953 -0.004308  0.000000
4   1.003809   0.168696 -0.002188 -0.000004
5   1.005974   0.268247 -0.002704 -0.000332
6   1.010150   0.475945 -0.005070  0.000278
7   1.003825   0.139390 -0.005269 -0.000566
8   1.001155   0.050660 -0.004417 -0.000278
9   0.999955   0.000956  0.005002  0.008974
10  0.999948   0.000918  0.003512  0.007302
11  0.999943   0.000736  0.010111  0.001394
12  0.999983   0.002870  0.000826  0.005925
13  0.999974   0.002679  0.003476  0.005850
14  0.999968   0.002513  0.010111  0.001981
15  0.999980   0.000817  0.000000  0.000000
16  0.999981   0.000817  0.000000  0.000000
17  0.999985   0.002765  0.000000  0.000000
18  0.999985   0.002765  0.000000  0.000000
19  1.000000   0.000000 -0.005369 -0.022702
20  1.000000   0.000003  0.000000  0.000000
21  1.000000   0.000000  0.005114 -0.017933
22  1.000000   0.000002  0.000000  0.000000
--------------------------------------------------

LINE:
    p_from_mw   q_from_mvar   p_to_mw  q_to_mvar         pl_mw       ql_mvar  i_from_ka   i_to_ka      i_ka  vm_from_pu  va_from_degree  vm_to_pu  va_to_degree  loading_percent
0    0.005359  1.870175e-02 -0.005358  -0.018701  3.701944e-07  2.886467e-07   0.000749  0.000749  0.000749    1.000000        0.000003  0.999980      0.000817         0.325564
1   -0.005124  1.393279e-02  0.005124  -0.013932  5.927796e-07  4.622000e-07   0.000571  0.000571  0.000571    1.000000        0.000002  0.999985      0.002765         0.248429
2    0.018626  1.767025e-02 -0.018626  -0.017670  5.097491e-07  3.974598e-07   0.000988  0.000988  0.000988    0.999980        0.000817  0.999955      0.000956         0.429665
3    0.000826  5.925094e-03 -0.000826  -0.005925  1.237688e-08  9.650455e-09   0.000230  0.000230  0.000230    0.999985        0.002765  0.999983      0.002870         0.100115
4    0.013588  7.830726e-03 -0.013588  -0.007831  1.344851e-07  1.048602e-07   0.000604  0.000604  0.000604    0.999985        0.002765  0.999974      0.002679         0.262450
5   -0.013278  3.130146e-05  0.013360   0.000033  8.246564e-05  6.429982e-05   0.019166  0.019166  0.019166    0.999981        0.000817  1.006191      0.277397         8.332874
6   -0.007706 -2.953711e-07  0.007752   0.000036  4.606868e-05  3.592051e-05   0.011123  0.011123  0.011123    0.999985        0.002765  1.005974      0.268247         4.835871
7   -0.005250 -5.508219e-04  0.005269   0.000566  1.882917e-05  1.468141e-05   0.007620  0.007620  0.007620    0.999985        0.002765  1.003825      0.139390         3.312989
8   -0.006592 -2.722977e-04  0.006599   0.000278  7.483605e-06  5.835090e-06   0.009522  0.009522  0.009522    0.999985        0.002765  1.001155      0.050660         4.140203
9   -0.013624 -8.696273e-03  0.013624   0.008696  9.034809e-08  7.044589e-08   0.000622  0.000622  0.000622    0.999948        0.000918  0.999955      0.000956         0.270491
10  -0.010111 -1.393984e-03  0.010111   0.001394  5.095689e-08  3.973193e-08   0.000393  0.000393  0.000393    0.999943        0.000736  0.999948      0.000918         0.170820
11  -0.010111 -1.980591e-03  0.010111   0.001981  5.192252e-08  4.048484e-08   0.000397  0.000397  0.000397    0.999968        0.002513  0.999974      0.002679         0.172431
12   0.005070 -3.444288e-05 -0.005055   0.000046  1.493180e-05  1.164257e-05   0.007251  0.007251  0.007251    1.009145        0.410508  1.006191      0.277397         3.152712
13   0.004308  1.544989e-09 -0.004296   0.000009  1.216859e-05  9.488051e-06   0.006162  0.006162  0.006162    1.009039        0.403953  1.006191      0.277397         2.679082
14   0.001950  8.374540e-05 -0.001947  -0.000081  3.373529e-06  2.630396e-06   0.002787  0.002787  0.002787    1.010948        0.483517  1.009145      0.410508         1.211900
15  -0.002182  2.356668e-07  0.002188   0.000004  5.779488e-06  4.506362e-06   0.003146  0.003146  0.003146    1.001155        0.050660  1.003809      0.168696         1.367713
16   0.005070 -2.782615e-04 -0.005048   0.000295  2.199407e-05  1.714914e-05   0.007255  0.007255  0.007255    1.010150        0.475945  1.005974      0.268247         3.154203
--------------------------------------------------

TRAFO:
    p_hv_mw  q_hv_mvar   p_lv_mw  q_lv_mvar    pl_mw  ql_mvar   i_hv_ka   i_lv_ka  vm_hv_pu  va_hv_degree  vm_lv_pu  va_lv_degree  loading_percent
0 -0.013268   0.001031  0.013278  -0.000031  0.00001    0.001  0.000512  0.019166  0.999980      0.000817  0.999981      0.000817         0.133083
1 -0.019538   0.000177  0.019548   0.000823  0.00001    0.001  0.000752  0.028240  0.999985      0.002765  0.999985      0.002765         0.195654
2  0.005369   0.022702 -0.005359  -0.018702  0.00001    0.004  0.000192  0.000749  1.000000      0.000000  1.000000      0.000003         0.058320
3 -0.005114   0.017933  0.005124  -0.013933  0.00001    0.004  0.000154  0.000571  1.000000      0.000000  1.000000      0.000002         0.046619
--------------------------------------------------
